       4
charge  1   dipole  0  0  0  H3O+ C3h, E =        -0.3223235653
  H         0.8943439243       -0.2499374707       -0.2499374707
  H        -0.2499374707        0.8943439243       -0.2499374707
  H        -0.2499374707       -0.2499374707        0.8943439243
  O        -0.0329918777       -0.0329918777       -0.0329918777
       3
charge  1   dipole  0  0  0  H2O C2v, E =        -0.5080052235
  H         0.8671846053       -0.2052399750       -0.2631502687
  H        -0.2052399750        0.8671846053       -0.2631502687
  O        -0.0440250514       -0.0440250514       -0.0106828836
       7
charge  1   dipole  0  0  0  H5O2+ C2_min, E =        -0.8844420921
  H        -1.5249005386        0.8795998745       -0.9632933437
  H        -1.4185373799       -0.2547703208        0.1246933997
  H        -1.1558740498       -0.7919708891       -1.6409836090
  H        -0.2194130115       -1.8763136829       -2.7971993729
  H        -1.7527904463       -2.2187352996       -2.6817650017
  O        -1.1431352215        0.0158970160       -0.7602331517
  O        -1.0923858910       -1.5209528349       -2.5860173516
      10
charge  1   dipole  0  0  0  H7O3+ A, E =        -1.4301621693
  H        -0.3508552886        0.8772847673        0.0297465505
  H        -1.6126265620       -0.0403049492        0.5905084525
  H        -0.3056215863       -0.8677241524        0.0102864315
  H         0.3970130791       -2.7229301556       -0.7604716587
  H         1.1510792159       -2.3806553232        0.5488110786
  H         0.3432552176        2.7422758542       -0.7416422534
  H         0.7508106764        2.6154450251        0.7455355344
  O         0.4213821366        2.1222001129       -0.0107902531
  O        -0.8744713850       -0.0070877544       -0.0295229535
  O         0.3879053989       -2.1504279921        0.0122191109
   13
 CCSD(T)-F12A/AVTZ  ENERGY=-305.88069188
 H          0.9899965428       -0.0125128458        0.0283410842
 H         -0.4183993616        0.8978152958        0.0282579835
 H         -0.4188481444       -0.6476852754       -0.6227830098
 H          3.0230213782       -0.5007537054        0.7603259972
 H          3.1423529553        0.4967223473       -0.4061373255
 H         -1.3442282775        2.8412667648       -0.6403004532
 H         -0.8389102049       -1.8536729084       -2.4801658123
 H         -1.4210362340        2.6761929243        0.8883166950
 H         -1.6996331021       -2.3257776478       -1.2943567637
 O         -0.0156265059       -0.0237244591        0.0556863282
 O          2.5387212850       -0.1128953153        0.0262780972
 O         -0.9899821446        2.3390915072        0.0981520858
 O         -1.1467784661       -1.6035711559       -1.6051470496
