 19
charge  1.0000000   dipole  0.57034923  -0.03707789   0.50836704
     O  -0.3629643385  -0.9856023013  0.4701504716
     O  -0.5814946285  1.3605411394  0.2539052274
     O  -0.8381428689  -2.5300831008  -1.6832542134
     O  1.5859967719  2.5815007128  -0.9987954712
     O  1.7140191270  -2.3114615459  1.5632457990
     O  -0.8467548837  2.8992424092  2.4549896957
     H  -0.5601925595  -1.5071862018  -0.3721580519
     H  0.4275779604  -1.4207524499  0.9013879244
     H  -0.4368404237  0.1230184350  0.3705214750
     H  0.1402487980  1.8057941072  -0.2630060355
     H  -0.6443614309  1.8478552101  1.1137676882
     H  -1.5753046916  -3.1559534340  -1.6565512463
     H  -0.8087075213  -2.2048107326  -2.5951930121
     H  2.4769271597  2.7498363417  -0.7001137652
     H  1.4248499085  3.2445423210  -1.6705500711
     H  1.5459608061  -2.9077189915  2.2662068581
     H  2.3027378306  -2.7927500065  0.9781125170
     H  -1.4124769584  3.6532517516  2.4517605909
     H  -0.6643489064  2.6509464095  3.3878133346
 19
charge  1.0000000   dipole  0.46242588  0.58162834   0.70092133
     O  -0.3708081247  -0.9920511000  0.4906293707
     O  -0.5707125296  1.3493806461  0.2567580499
     O  -0.8500645971  -2.5275529172  -1.7181940740
     O  1.5722720112  2.5566048413  -0.9780617266
     O  1.7218362437  -2.3108463687  1.5373676210
     O  -0.8222915604  2.9055710992  2.4630154804
     H  -0.6869920055  -1.5021190021  -0.3121236949
     H  0.4364004263  -1.4428881334  0.8543391485
     H  -0.3727668999  0.2297570017  0.3670048626
     H  0.1975538094  1.8389319393  -0.1557914368
     H  -0.7530298802  1.8209786509  1.1137643776
     H  -1.6026828644  -3.1208078774  -1.6511342358
     H  -0.8036045442  -2.2722316513  -2.6483570253
     H  2.4030558074  2.7895040263  -0.5577127228
     H  1.3835135882  3.2780218812  -1.6103483061
     H  1.6354818136  -2.8836214042  2.2859586211
     H  2.3125273232  -2.7428965095  0.9277035848
     H  -1.4952677330  3.6112588227  2.4774530454
     H  -0.6276705445  2.7543821069  3.3969867438
 19
charge  1.0000000   dipole  0.47254468  0.63196450   0.81541425
     O  -0.3838254940  -1.0138824643  0.5138126904
     O  -0.5504172827  1.3681489385  0.2581947157
     O  -0.8669593610  -2.5261634603  -1.7483203754
     O  1.5517764607  2.5293204014  -0.9533434582
     O  1.7317783516  -2.3038780122  1.5044971744
     O  -0.8015250712  2.9159882687  2.4738594841
     H  -0.6292904998  -1.4939682432  -0.3326244378
     H  0.4167359141  -1.5005729819  0.8402043588
     H  -0.4292386873  0.2354767367  0.4066312750
     H  0.2749566022  1.8251329147  -0.0779197545
     H  -0.8031781085  1.8134436759  1.1083971504
     H  -1.6196086241  -3.1111554220  -1.6875400698
     H  -0.7912794067  -2.3138875711  -2.6806084707
     H  2.3012426304  2.8285966936  -0.4166974821
     H  1.3548952326  3.2860706656  -1.5497512601
     H  1.6949651821  -2.8605372356  2.2991395019
     H  2.3501714476  -2.7441962533  0.9271442498
     H  -1.5763340682  3.5331041474  2.4543487389
     H  -0.5645900194  2.7923398718  3.3789158635
 19
charge  1.0000000   dipole  0.60952108  0.38333970   0.90890906
     O  -0.4064473777  -1.0357357659  0.5243475538
     O  -0.5304766442  1.3820087890  0.2700867480
     O  -0.8864178691  -2.5249028834  -1.7744464350
     O  1.5314904676  2.5037995460  -0.9167798187
     O  1.7487468258  -2.2985738434  1.4697061784
     O  -0.7868040787  2.9277498764  2.4747099058
     H  -0.5530677152  -1.4766190689  -0.3629067898
     H  0.4043420018  -1.4385800998  0.9376808045
     H  -0.4005155163  0.1518849044  0.4145839312
     H  0.2720897445  1.7999051714  -0.1622922268
     H  -0.6657216841  1.8735378371  1.1217642897
     H  -1.6325761709  -3.1183495129  -1.7344801019
     H  -0.7609896929  -2.3159505572  -2.6958440417
     H  2.2234746510  2.8539838633  -0.3276373687
     H  1.2925845989  3.2361525539  -1.5071320611
     H  1.6856107207  -2.7982459106  2.3138956395
     H  2.3996081836  -2.7450044630  0.9201317414
     H  -1.6139378093  3.4534447355  2.5293110247
     H  -0.5386404559  2.8026536435  3.3768673957
 19
charge  1.0000000   dipole  0.66589902  0.35346630   0.82014604
     O  -0.4299060584  -1.0337001498  0.5257215901
     O  -0.5080759400  1.3614630806  0.2905548182
     O  -0.9008179012  -2.5184142593  -1.7926403192
     O  1.5150468006  2.4827677606  -0.8786528535
     O  1.7643729801  -2.2869197378  1.4400792544
     O  -0.7786721203  2.9452867088  2.4787225457
     H  -0.5480721197  -1.5277455791  -0.3318474531
     H  0.4059633036  -1.4254052435  0.8938121613
     H  -0.4529819566  0.1541417334  0.4075411644
     H  0.2180082197  1.7749645316  -0.2567938818
     H  -0.5184197525  1.8886808169  1.1309414107
     H  -1.6548354466  -3.1100986579  -1.7913570841
     H  -0.7446799515  -2.3107346425  -2.7111101553
     H  2.1737079289  2.8917354042  -0.2946552516
     H  1.2653690275  3.1706932156  -1.4883327575
     H  1.7109549411  -2.7650181313  2.2903135122
     H  2.4345300968  -2.7720201724  0.9274120493
     H  -1.6238973481  3.3697293437  2.5636708673
     H  -0.4617279666  2.7490805936  3.3650409955
 19
charge  1.0000000   dipole  0.58069953  0.64089929   0.80847210
     O  -0.4485850232  -1.0326658739  0.5177774570
     O  -0.4941813289  1.3253419581  0.3126180149
     O  -0.9119407943  -2.5087291604  -1.8045335852
     O  1.5031965271  2.4734052563  -0.8517256281
     O  1.7832742920  -2.2754283557  1.4178130215
     O  -0.7629033445  2.9598813983  2.4784389470
     H  -0.7209299365  -1.4958908233  -0.3048295479
     H  0.3979337869  -1.4428686641  0.8159479193
     H  -0.4370051212  0.2294001591  0.4258614322
     H  0.2845144881  1.7171032354  -0.1913778635
     H  -0.5892864593  1.8140737497  1.1730233056
     H  -1.6804540026  -3.0881179153  -1.8278041875
     H  -0.7191229684  -2.2836265609  -2.7185451058
     H  2.1251708351  2.8966782113  -0.2588658054
     H  1.3144975713  3.1043152893  -1.5277360192
     H  1.7186253224  -2.7183769131  2.2609449732
     H  2.4342213831  -2.7622001045  0.8833010102
     H  -1.6279347948  3.2733141869  2.6308790679
     H  -0.4436444656  2.7298334572  3.3762427938
 19
charge  1.0000000   dipole  0.52840934  0.31924163   0.71572971
     O  -0.4702457808  -1.0497420546  0.5090140284
     O  -0.4886203269  1.3067236362  0.3387445665
     O  -0.9242571381  -2.4972625029  -1.8089971248
     O  1.4983833216  2.4680818022  -0.8291857760
     O  1.8019999239  -2.2566592172  1.3954325218
     O  -0.7477248176  2.9648520732  2.4821590719
     H  -0.7938967074  -1.4692659075  -0.3091380683
     H  0.3565153531  -1.5468120104  0.7225938832
     H  -0.4063085735  0.1469673255  0.4372671001
     H  0.3197721142  1.7788678599  -0.0207560729
     H  -0.7037076294  1.8059710695  1.1666188734
     H  -1.6988749519  -3.0672809825  -1.8919086920
     H  -0.7076852650  -2.2434678868  -2.7186919428
     H  2.1091779116  2.9159805735  -0.2607387683
     H  1.3899536250  3.0396913405  -1.5817801884
     H  1.7522954657  -2.7212687006  2.2142491784
     H  2.4133216406  -2.7781592776  0.8656156076
     H  -1.6432773287  3.2201816508  2.6304956953
     H  -0.3790198529  2.7323622565  3.3540964690
 19
charge  1.0000000   dipole  0.51885396  0.21864845   0.57915685
     O  -0.4942187782  -1.0934285591  0.4931937871
     O  -0.4896192699  1.3023826494  0.3771812084
     O  -0.9408419022  -2.4841276377  -1.8112752171
     O  1.5105962194  2.4703156155  -0.8034953916
     O  1.8210101665  -2.2395740988  1.3697712008
     O  -0.7369317764  2.9605318107  2.4809591322
     H  -0.7562192317  -1.4740075552  -0.3597524107
     H  0.3432482874  -1.5408051066  0.7738759559
     H  -0.4220739036  0.0876674295  0.4549600825
     H  0.2423850277  1.7881484267  -0.0998212337
     H  -0.7250367910  1.7878725968  1.1991138135
     H  -1.7092682515  -3.0510168238  -1.9344545346
     H  -0.6856230312  -2.1771304289  -2.6933261410
     H  2.1556862091  2.9567515693  -0.3085690456
     H  1.3912076461  2.9481141900  -1.6357617207
     H  1.7392773832  -2.7052539361  2.1904055004
     H  2.3803175095  -2.7632055279  0.8151092768
     H  -1.6403337596  3.2529922616  2.7050782671
     H  -0.3502023711  2.7673064331  3.3340348799
 19
charge  1.0000000   dipole  0.65618553  0.52620219   0.54065937
     O  -0.5143894691  -1.1328926571  0.4760624071
     O  -0.5086821865  1.2808929254  0.4149235348
     O  -0.9555341269  -2.4663663349  -1.8118719733
     O  1.5302964704  2.4770323705  -0.7866243259
     O  1.8314235688  -2.2180109365  1.3421981415
     O  -0.7362387542  2.9529917228  2.4871835085
     H  -0.6499921927  -1.5812635398  -0.3683850999
     H  0.3320125270  -1.5045353055  0.8124113456
     H  -0.4915269240  0.1264434009  0.4310372013
     H  0.2331372902  1.7285981501  -0.0850490594
     H  -0.5601286952  1.8189241793  1.2459437943
     H  -1.7232629884  -3.0196795266  -1.9662331081
     H  -0.6945873482  -2.1376141936  -2.6767761408
     H  2.2040824786  3.0160139305  -0.3570599293
     H  1.4028479203  2.8752290023  -1.6688649439
     H  1.7663697973  -2.7193395884  2.1629143949
     H  2.3549943801  -2.7671311647  0.7800517341
     H  -1.6115849430  3.3515350713  2.7307192711
     H  -0.2696253842  2.7945350275  3.2907867949
 19
charge  1.0000000   dipole  0.60016023  0.43032918   0.59128131
     O  -0.5232387677  -1.1549273534  0.4650155404
     O  -0.5255212585  1.2605640849  0.4444276169
     O  -0.9655651355  -2.4491019488  -1.8189986856
     O  1.5514079606  2.4846814045  -0.7813049788
     O  1.8393463744  -2.2000153458  1.3199572555
     O  -0.7299089231  2.9401407248  2.4934753954
     H  -0.7024114711  -1.6049591499  -0.3692593439
     H  0.3137603281  -1.5216383114  0.8165109782
     H  -0.5416949632  0.0886451400  0.4824153188
     H  0.2850970949  1.5962212052  -0.0210507784
     H  -0.6189744321  1.7098469383  1.3172090116
     H  -1.7553705351  -2.9727743470  -1.9419900801
     H  -0.7162780344  -2.1197220071  -2.6776598773
     H  2.2184144624  3.0612929223  -0.3577594970
     H  1.4348938279  2.8231053215  -1.6847779333
     H  1.8038417223  -2.7048771183  2.1524543506
     H  2.3285697444  -2.7358457007  0.6938155152
     H  -1.5526560442  3.4185422227  2.7399716170
     H  -0.2364243656  2.8870905767  3.3077133718
 19
charge  1.0000000   dipole  0.52103958  0.28435479   0.50617877
     O  -0.5314006623  -1.1614251116  0.4705507853
     O  -0.5401554365  1.2159408466  0.4672477778
     O  -0.9737263772  -2.4351760357  -1.8293385815
     O  1.5721092973  2.4856463742  -0.7784644905
     O  1.8409245011  -2.1798832274  1.3000005361
     O  -0.7188615338  2.9272997836  2.5108165775
     H  -0.7867523719  -1.5285351515  -0.3863402184
     H  0.3062670240  -1.5974126024  0.7299127364
     H  -0.4794547271  -0.0083374202  0.4657057987
     H  0.2618483098  1.6912709526  0.1353583572
     H  -0.7315531314  1.7287385638  1.2873999130
     H  -1.7937742242  -2.9186259746  -1.9256903200
     H  -0.7673875985  -2.1203570330  -2.7041415942
     H  2.2062998347  3.0979240712  -0.3525489134
     H  1.4716275722  2.8086380630  -1.6771916918
     H  1.8935054264  -2.7106012540  2.1157066997
     H  2.3183380911  -2.7204147681  0.6369999850
     H  -1.5160374486  3.4292031374  2.6515513588
     H  -0.1973796016  2.9806775896  3.3285543072
 19
charge  1.0000000   dipole  0.48096261  0.21851943   0.41128214
     O  -0.5374364514  -1.1768448451  0.4777340582
     O  -0.5428200682  1.1924727448  0.4881765475
     O  -0.9871453836  -2.4223749272  -1.8432244713
     O  1.5927861818  2.4835465803  -0.7707093734
     O  1.8382908757  -2.1676608366  1.2735361597
     O  -0.7100197005  2.9160235254  2.5283097398
     H  -0.7754480334  -1.5010990718  -0.4024708970
     H  0.3088357117  -1.6091989165  0.7267054269
     H  -0.4573979240  -0.0786283497  0.5183509782
     H  0.1717294902  1.7088857328  0.0592418030
     H  -0.8176289704  1.6470010709  1.3012325175
     H  -1.8233974645  -2.8872628377  -1.8998419693
     H  -0.8044556532  -2.1036146703  -2.7283312295
     H  2.1763875166  3.1187405147  -0.3445391372
     H  1.4696573402  2.8065951410  -1.6576114408
     H  1.9368654064  -2.6566686110  2.0979614202
     H  2.3569162966  -2.6572780620  0.5939172592
     H  -1.4604041388  3.4620628776  2.6130009131
     H  -0.2093671969  3.0629121595  3.3583686713
 19
charge  1.0000000   dipole  0.64697013  0.56745086   0.50860056
     O  -0.5363575452  -1.2123039385  0.4869145304
     O  -0.5520561877  1.1830256014  0.4981864137
     O  -1.0045747753  -2.4069526364  -1.8569017141
     O  1.6057348544  2.4773007772  -0.7609984640
     O  1.8307481704  -2.1563959060  1.2391777147
     O  -0.7076448123  2.9149699879  2.5519678253
     H  -0.6832609926  -1.5801948578  -0.3928752746
     H  0.3063457170  -1.5928898800  0.8042198877
     H  -0.5252883472  -0.0311169020  0.4748505212
     H  0.1711282874  1.6685999019  0.0430243327
     H  -0.6230638415  1.6706246748  1.3463770564
     H  -1.8388835502  -2.8834532673  -1.8974575202
     H  -0.8454092843  -2.0882226133  -2.7548610923
     H  2.1236522514  3.1286348214  -0.3165194319
     H  1.4653024447  2.8321519057  -1.6348523452
     H  1.9617679596  -2.6096014021  2.0699869329
     H  2.4411837750  -2.5977508797  0.6235987664
     H  -1.4330791368  3.5143116573  2.5707989927
     H  -0.2030733630  3.0342981792  3.3651092739
 19
charge  1.0000000   dipole  0.73861945  0.02229109   0.53053563
     O  -0.5333552099  -1.2378959617  0.4958726100
     O  -0.5538558409  1.1945273131  0.5019544259
     O  -1.0238412740  -2.3925371676  -1.8722276858
     O  1.6089568062  2.4682418690  -0.7516951910
     O  1.8288505177  -2.1505868116  1.2100606994
     O  -0.7009910827  2.9114720223  2.5731754091
     H  -0.6741537782  -1.6462410438  -0.3730734980
     H  0.3358781818  -1.5696308915  0.8179944126
     H  -0.5304534554  -0.1724745826  0.5077586945
     H  0.2215667361  1.5097525897  0.0104057135
     H  -0.5110775023  1.6352926294  1.3652133688
     H  -1.8454047203  -2.8966395829  -1.9003195464
     H  -0.8739387540  -2.0625602379  -2.7712072081
     H  2.0646111322  3.1199219935  -0.2494391663
     H  1.4686027172  2.8577573757  -1.6162044239
     H  1.9617051369  -2.5511093877  2.0639989021
     H  2.4882516646  -2.4996129189  0.6246351094
     H  -1.4125789684  3.5745781940  2.5828189295
     H  -0.2531987052  3.0161879933  3.3951839665
 19
charge  1.0000000   dipole  0.63603948  0.35574744   0.54071034
     O  -0.5270663248  -1.2741651964  0.5082948216
     O  -0.5388200873  1.1884503773  0.4947394486
     O  -1.0429121962  -2.3791633278  -1.8816135672
     O  1.6075068006  2.4522785452  -0.7432053173
     O  1.8273920648  -2.1416617776  1.1895967318
     O  -0.6876124915  2.9110627455  2.6012607759
     H  -0.7690084888  -1.5624407710  -0.3829065206
     H  0.3741645446  -1.6204358867  0.7127877637
     H  -0.5583150224  -0.1539637405  0.5293178225
     H  0.2108660114  1.5983822047  0.0324258881
     H  -0.5946501664  1.7011410036  1.3227058556
     H  -1.8436941929  -2.9145124789  -1.9423978644
     H  -0.9080506808  -2.0231305964  -2.7688687576
     H  1.9995659272  3.1148616839  -0.1707080396
     H  1.4769415266  2.9028097246  -1.5862224017
     H  2.0116683624  -2.5419168551  2.0388631589
     H  2.5216993330  -2.4211516898  0.6260109398
     H  -1.4132742197  3.5775458145  2.5378193852
     H  -0.3076811885  2.9840222280  3.4567483605
 19
charge  1.0000000   dipole  0.50436138  0.10411717   0.51129645
     O  -0.5308351925  -1.2808063867  0.5120570924
     O  -0.5186090208  1.1730745351  0.4862218354
     O  -1.0652618413  -2.3639369192  -1.8885561918
     O  1.6010307931  2.4369800916  -0.7323060757
     O  1.8355887112  -2.1340757220  1.1721635959
     O  -0.6723741043  2.9139641623  2.6239872706
     H  -0.8228556578  -1.5818813956  -0.3648299085
     H  0.3602477897  -1.6925041699  0.6589460913
     H  -0.4104737636  -0.2279598433  0.5341226845
     H  0.1697739126  1.6705380616  0.0247492519
     H  -0.7567741903  1.6842176759  1.2701007948
     H  -1.8280102736  -2.9423516241  -1.9810379629
     H  -0.9283581018  -1.9626255107  -2.7469295429
     H  1.9553225841  3.0877152676  -0.0918174940
     H  1.4786689469  2.9253993049  -1.5556586394
     H  2.0130735060  -2.5486844525  2.0203076351
     H  2.5566722276  -2.3422129741  0.5923561236
     H  -1.3991505396  3.5602042043  2.5623824691
     H  -0.4009380907  2.9433947791  3.5487603958
 19
charge  1.0000000   dipole  0.51801510  0.13602524   0.60937303
     O  -0.5274745560  -1.2839608406  0.5046816274
     O  -0.5058827375  1.1500102616  0.4692783627
     O  -1.0895544263  -2.3459420149  -1.8891226772
     O  1.5881753584  2.4251278664  -0.7159930044
     O  1.8464575321  -2.1259785764  1.1541145891
     O  -0.6640953070  2.9262029830  2.6462388989
     H  -0.8207093877  -1.6328822021  -0.3495897208
     H  0.3176448792  -1.7162059052  0.7672412092
     H  -0.5052354279  -0.1807885255  0.4881604469
     H  0.2112032742  1.6509070832  0.0485172895
     H  -0.7096066076  1.6078458783  1.3025184564
     H  -1.8013860377  -2.9672887459  -2.0396088628
     H  -0.9669579515  -1.9002026677  -2.7229237392
     H  1.9654411631  3.0541731977  -0.0598962096
     H  1.4824753103  2.9458427001  -1.5202251156
     H  2.0270436503  -2.5982056310  1.9754095733
     H  2.6198627742  -2.2998082155  0.5882097198
     H  -1.3674770103  3.5594191166  2.5967190271
     H  -0.4723345174  2.7941996326  3.6035034161
 19
charge  1.0000000   dipole  0.70090858  0.04869844   0.50484217
     O  -0.5415185474  -1.2804914503  0.4964600512
     O  -0.5054951393  1.1238609242  0.4561908311
     O  -1.1156737285  -2.3281744857  -1.8885892358
     O  1.5739017114  2.4194698333  -0.6925171397
     O  1.8656529901  -2.1243216950  1.1470390703
     O  -0.6534445631  2.9350778021  2.6652852947
     H  -0.7273948690  -1.6922697383  -0.3636722793
     H  0.3735127836  -1.5787810574  0.7327835605
     H  -0.4904323092  -0.1708715057  0.4495765456
     H  0.2833696263  1.5094269173  0.0339191524
     H  -0.5412304225  1.5822907578  1.3208379735
     H  -1.7758548841  -2.9919237258  -2.0673430620
     H  -0.9982531445  -1.8253553238  -2.6919842502
     H  2.0319599548  2.9997967503  -0.0675256039
     H  1.4494074475  2.9377150566  -1.4921767743
     H  2.0339253851  -2.6600700914  1.9319771117
     H  2.6249064923  -2.2429341240  0.5269120099
     H  -1.3552862038  3.5559651519  2.6662396490
     H  -0.5820880795  2.6425139185  3.6028333821
 19
charge  1.0000000   dipole  0.52183888  -0.03096744   0.28663639
     O  -0.5422654029  -1.2817333302  0.4855886589
     O  -0.4939604924  1.1058591222  0.4476852967
     O  -1.1352530585  -2.3087038895  -1.8860374669
     O  1.5633217038  2.4114612918  -0.6662622350
     O  1.8870599186  -2.1191330109  1.1428197588
     O  -0.6389771623  2.9309634592  2.6867081484
     H  -0.7889016043  -1.6327648640  -0.3848027469
     H  0.3700914791  -1.5878104698  0.7071422735
     H  -0.5917859346  -0.1780499285  0.4922392690
     H  0.2439103087  1.4961623442  -0.0532035613
     H  -0.5499651474  1.6088041214  1.2870075059
     H  -1.7665459841  -3.0007379696  -2.0807670673
     H  -1.0718535325  -1.7876602358  -2.6930492201
     H  2.1047383841  2.9530731937  -0.1102190726
     H  1.3978393435  2.9366422502  -1.4520421481
     H  2.0783206655  -2.7477604655  1.8533965957
     H  2.6280770720  -2.2246165055  0.5088833202
     H  -1.3587630542  3.5534857894  2.6629008669
     H  -0.6681825593  2.5310850917  3.5593527359
 19
charge  1.0000000   dipole  0.32342055  -0.05965286   0.17090747
     O  -0.5486215182  -1.2910425585  0.4788750973
     O  -0.4928382219  1.1051152475  0.4459764251
     O  -1.1521568532  -2.2869382592  -1.8896136628
     O  1.5554647683  2.4030109552  -0.6501227139
     O  1.9151662721  -2.1149714862  1.1386003207
     O  -0.6208454644  2.9131394870  2.7027360007
     H  -0.8638130472  -1.6237454176  -0.3784602348
     H  0.3226653184  -1.7181830992  0.6634946246
     H  -0.4287929987  -0.1821017546  0.4925755207
     H  0.2374501362  1.5890349134  0.0001136311
     H  -0.6673586582  1.6881929137  1.2181325133
     H  -1.7726127868  -3.0112359415  -2.0202537910
     H  -1.1535225455  -1.7664328588  -2.7045286662
     H  2.1502228303  2.8929553006  -0.1122546951
     H  1.3680925382  2.9584760353  -1.4056983318
     H  2.0561782747  -2.8199272498  1.7833922056
     H  2.6083029799  -2.1905697787  0.4841834255
     H  -1.3762309927  3.5287120843  2.6331991883
     H  -0.7490478768  2.4876464510  3.5269954597
